Alimentador_BandeirantesPR/CargaPNTBT_Sabado807560002_M7.dss
New Load.BT_194_293565._PNTNU Bus1=BT3790.1.2.3.0 phases=3 conn=Delta Model=3 kV=0.22 kW=0.127 pf=0.92 Vminpu=0.92 Vmaxpu=1.50 daily=RUR_4_Sabado status=variable 
New Load.BT_159_293598._PNTNU Bus1=BT3791.1.2.0 phases=1 conn=wye Model=3 kV=0.22 kW=0.001 pf=0.92 Vminpu=0.92 Vmaxpu=1.50 daily=RUR_7_Sabado status=variable 
New Load.BT_159_293600._PNTNU Bus1=BT3792.1.0 phases=1 conn=wye Model=3 kV=0.127 kW=0.02 pf=0.92 Vminpu=0.92 Vmaxpu=1.50 daily=RUR_5_Sabado status=variable 
New Load.BT_252_278711._PNTUB Bus1=BT3793.2.3.0 phases=1 conn=wye Model=3 kV=0.22 kW=0.012 pf=0.92 Vminpu=0.92 Vmaxpu=1.50 daily=RES_6_Sabado status=variable 
New Load.BT_252_278712._PNTUB Bus1=BT3794.1.0 phases=1 conn=wye Model=3 kV=0.127 kW=0.006 pf=0.92 Vminpu=0.92 Vmaxpu=1.50 daily=RES_3_Sabado status=variable 
New Load.BT_252_278715._PNTUB Bus1=BT3795.1.2.3.0 phases=3 conn=Delta Model=3 kV=0.22 kW=0.016 pf=0.92 Vminpu=0.92 Vmaxpu=1.50 daily=IND_3_Sabado status=variable 
New Load.BT_252_278716._PNTUB Bus1=BT3796.1.2.3.0 phases=3 conn=Delta Model=3 kV=0.22 kW=0.009 pf=0.92 Vminpu=0.92 Vmaxpu=1.50 daily=COM_2_Sabado status=variable 
New Load.BT_252_278717._PNTUB Bus1=BT3797.1.0 phases=1 conn=wye Model=3 kV=0.127 kW=0.002 pf=0.92 Vminpu=0.92 Vmaxpu=1.50 daily=COM_6_Sabado status=variable 
New Load.BT_252_278718._PNTUB Bus1=BT3798.2.3.0 phases=1 conn=wye Model=3 kV=0.22 kW=0.013 pf=0.92 Vminpu=0.92 Vmaxpu=1.50 daily=COM_3_Sabado status=variable 
New Load.BT_252_278719._PNTUB Bus1=BT3799.2.0 phases=1 conn=wye Model=3 kV=0.127 kW=0.019 pf=0.92 Vminpu=0.92 Vmaxpu=1.50 daily=RES_5_Sabado status=variable 
New Load.BT_252_278721._PNTUB Bus1=BT3800.1.2.0 phases=1 conn=wye Model=3 kV=0.22 kW=0.017 pf=0.92 Vminpu=0.92 Vmaxpu=1.50 daily=COM_4_Sabado status=variable 
New Load.BT_4_278722._PNTUB Bus1=BT3801.3.0 phases=1 conn=wye Model=3 kV=0.127 kW=0.009 pf=0.92 Vminpu=0.92 Vmaxpu=1.50 daily=RES_6_Sabado status=variable 
New Load.BT_4_278724._PNTUB Bus1=BT3802.1.2.3.0 phases=3 conn=Delta Model=3 kV=0.22 kW=0.017 pf=0.92 Vminpu=0.92 Vmaxpu=1.50 daily=RES_1_Sabado status=variable 
New Load.BT_4_278725._PNTUB Bus1=BT3803.1.0 phases=1 conn=wye Model=3 kV=0.127 kW=0.036 pf=0.92 Vminpu=0.92 Vmaxpu=1.50 daily=RES_6_Sabado status=variable 
New Load.BT_4_278726._PNTUB Bus1=BT3804.1.0 phases=1 conn=wye Model=3 kV=0.127 kW=0.001 pf=0.92 Vminpu=0.92 Vmaxpu=1.50 daily=RES_2_Sabado status=variable 
New Load.BT_4_278727._PNTUB Bus1=BT3805.1.2.3.0 phases=3 conn=Delta Model=3 kV=0.22 kW=0.023 pf=0.92 Vminpu=0.92 Vmaxpu=1.50 daily=RES_1_Sabado status=variable 
New Load.BT_4_278728._PNTUB Bus1=BT3806.1.2.0 phases=1 conn=wye Model=3 kV=0.22 kW=0.022 pf=0.92 Vminpu=0.92 Vmaxpu=1.50 daily=RES_2_Sabado status=variable 
New Load.BT_4_278729._PNTUB Bus1=BT3807.2.0 phases=1 conn=wye Model=3 kV=0.127 kW=0.002 pf=0.92 Vminpu=0.92 Vmaxpu=1.50 daily=COM_2_Sabado status=variable 
New Load.BT_4_278730._PNTUB Bus1=BT3808.1.0 phases=1 conn=wye Model=3 kV=0.127 kW=0.012 pf=0.92 Vminpu=0.92 Vmaxpu=1.50 daily=RES_4_Sabado status=variable 
New Load.BT_4_278731._PNTUB Bus1=BT3809.1.2.3.0 phases=3 conn=Delta Model=3 kV=0.22 kW=0.026 pf=0.92 Vminpu=0.92 Vmaxpu=1.50 daily=RES_5_Sabado status=variable 
New Load.BT_3_278732._PNTUB Bus1=BT3810.1.2.3.0 phases=3 conn=Delta Model=3 kV=0.22 kW=0.027 pf=0.92 Vminpu=0.92 Vmaxpu=1.50 daily=RES_4_Sabado status=variable 
New Load.BT_3_278733._PNTUB Bus1=BT3811.3.1.0 phases=1 conn=wye Model=3 kV=0.22 kW=0.015 pf=0.92 Vminpu=0.92 Vmaxpu=1.50 daily=RES_4_Sabado status=variable 
New Load.BT_4_278735._PNTUB Bus1=BT3812.1.2.3.0 phases=3 conn=Delta Model=3 kV=0.22 kW=0.003 pf=0.92 Vminpu=0.92 Vmaxpu=1.50 daily=RES_4_Sabado status=variable 
New Load.BT_3_278736._PNTUB Bus1=BT3813.1.2.0 phases=1 conn=wye Model=3 kV=0.22 kW=0.022 pf=0.92 Vminpu=0.92 Vmaxpu=1.50 daily=RES_1_Sabado status=variable 
New Load.BT_3_278737._PNTUB Bus1=BT3814.3.0 phases=1 conn=wye Model=3 kV=0.127 kW=0.012 pf=0.92 Vminpu=0.92 Vmaxpu=1.50 daily=RES_5_Sabado status=variable 
New Load.BT_3_278738._PNTUB Bus1=BT3815.1.2.3.0 phases=3 conn=Delta Model=3 kV=0.22 kW=0.022 pf=0.92 Vminpu=0.92 Vmaxpu=1.50 daily=RES_1_Sabado status=variable 
New Load.BT_3_278739._PNTUB Bus1=BT3816.2.3.0 phases=1 conn=wye Model=3 kV=0.22 kW=0.004 pf=0.92 Vminpu=0.92 Vmaxpu=1.50 daily=RES_6_Sabado status=variable 
New Load.BT_3_278740._PNTUB Bus1=BT3817.1.2.3.0 phases=3 conn=Delta Model=3 kV=0.22 kW=0.018 pf=0.92 Vminpu=0.92 Vmaxpu=1.50 daily=RES_5_Sabado status=variable 
New Load.BT_3_278741._PNTUB Bus1=BT3818.1.2.3.0 phases=3 conn=Delta Model=3 kV=0.22 kW=0.019 pf=0.92 Vminpu=0.92 Vmaxpu=1.50 daily=RES_3_Sabado status=variable 
New Load.BT_3_278743._PNTUB Bus1=BT3819.2.3.0 phases=1 conn=wye Model=3 kV=0.22 kW=0.024 pf=0.92 Vminpu=0.92 Vmaxpu=1.50 daily=RES_1_Sabado status=variable 
New Load.BT_3_278744._PNTUB Bus1=BT3820.1.2.3.0 phases=3 conn=Delta Model=3 kV=0.22 kW=0.038 pf=0.92 Vminpu=0.92 Vmaxpu=1.50 daily=COM_1_Sabado status=variable 
New Load.BT_3_278745._PNTUB Bus1=BT3821.1.2.0 phases=1 conn=wye Model=3 kV=0.22 kW=0.022 pf=0.92 Vminpu=0.92 Vmaxpu=1.50 daily=RES_8_Sabado status=variable 
New Load.BT_3_278746._PNTUB Bus1=BT3822.3.1.0 phases=1 conn=wye Model=3 kV=0.22 kW=0.015 pf=0.92 Vminpu=0.92 Vmaxpu=1.50 daily=RES_4_Sabado status=variable 
New Load.BT_3_278747._PNTUB Bus1=BT3823.2.3.0 phases=1 conn=wye Model=3 kV=0.22 kW=0.027 pf=0.92 Vminpu=0.92 Vmaxpu=1.50 daily=RES_1_Sabado status=variable 
New Load.BT_3_278772._PNTUB Bus1=BT3824.1.2.0 phases=1 conn=wye Model=3 kV=0.22 kW=0.02 pf=0.92 Vminpu=0.92 Vmaxpu=1.50 daily=RES_5_Sabado status=variable 
New Load.BT_3_278773._PNTUB Bus1=BT3825.1.2.3.0 phases=3 conn=Delta Model=3 kV=0.22 kW=0.113 pf=0.92 Vminpu=0.92 Vmaxpu=1.50 daily=IND_3_Sabado status=variable 
New Load.BT_3_278774._PNTUB Bus1=BT3826.1.2.0 phases=1 conn=wye Model=3 kV=0.22 kW=0 pf=0.92 Vminpu=0.92 Vmaxpu=1.50 daily=RES_1_Sabado status=variable 
New Load.BT_4_278775._PNTUB Bus1=BT3827.1.0 phases=1 conn=wye Model=3 kV=0.127 kW=0.017 pf=0.92 Vminpu=0.92 Vmaxpu=1.50 daily=RES_5_Sabado status=variable 
New Load.BT_252_278777._PNTUB Bus1=BT3828.2.0 phases=1 conn=wye Model=3 kV=0.127 kW=0.009 pf=0.92 Vminpu=0.92 Vmaxpu=1.50 daily=COM_1_Sabado status=variable 
New Load.BT_251_278781._PNTUB Bus1=BT3829.1.2.0 phases=1 conn=wye Model=3 kV=0.22 kW=0.026 pf=0.92 Vminpu=0.92 Vmaxpu=1.50 daily=RES_6_Sabado status=variable 
New Load.BT_251_278782._PNTUB Bus1=BT3830.1.2.0 phases=1 conn=wye Model=3 kV=0.22 kW=0.012 pf=0.92 Vminpu=0.92 Vmaxpu=1.50 daily=RES_5_Sabado status=variable 
New Load.BT_251_278783._PNTUB Bus1=BT3831.2.3.0 phases=1 conn=wye Model=3 kV=0.22 kW=0.039 pf=0.92 Vminpu=0.92 Vmaxpu=1.50 daily=RES_4_Sabado status=variable 
New Load.BT_251_278784._PNTUB Bus1=BT3832.1.2.0 phases=1 conn=wye Model=3 kV=0.22 kW=0.029 pf=0.92 Vminpu=0.92 Vmaxpu=1.50 daily=RES_6_Sabado status=variable 
New Load.BT_252_278785._PNTUB Bus1=BT3833.1.2.3.0 phases=3 conn=Delta Model=3 kV=0.22 kW=0.064 pf=0.92 Vminpu=0.92 Vmaxpu=1.50 daily=RES_8_Sabado status=variable 
New Load.BT_252_278786._PNTUB Bus1=BT3834.2.3.0 phases=1 conn=wye Model=3 kV=0.22 kW=0.024 pf=0.92 Vminpu=0.92 Vmaxpu=1.50 daily=RES_1_Sabado status=variable 
New Load.BT_252_278787._PNTUB Bus1=BT3835.1.2.0 phases=1 conn=wye Model=3 kV=0.22 kW=0.009 pf=0.92 Vminpu=0.92 Vmaxpu=1.50 daily=COM_4_Sabado status=variable 
New Load.BT_252_278788._PNTUB Bus1=BT3836.3.1.0 phases=1 conn=wye Model=3 kV=0.22 kW=0.014 pf=0.92 Vminpu=0.92 Vmaxpu=1.50 daily=RES_4_Sabado status=variable 
New Load.BT_251_278789._PNTUB Bus1=BT3837.1.2.3.0 phases=3 conn=Delta Model=3 kV=0.22 kW=0.018 pf=0.92 Vminpu=0.92 Vmaxpu=1.50 daily=RES_5_Sabado status=variable 
New Load.BT_4_278790._PNTUB Bus1=BT3838.2.3.0 phases=1 conn=wye Model=3 kV=0.22 kW=0.026 pf=0.92 Vminpu=0.92 Vmaxpu=1.50 daily=RES_1_Sabado status=variable 
New Load.BT_4_278791._PNTUB Bus1=BT3839.1.2.3.0 phases=3 conn=Delta Model=3 kV=0.22 kW=0.018 pf=0.92 Vminpu=0.92 Vmaxpu=1.50 daily=RES_4_Sabado status=variable 
New Load.BT_4_278792._PNTUB Bus1=BT3840.1.2.3.0 phases=3 conn=Delta Model=3 kV=0.22 kW=0.049 pf=0.92 Vminpu=0.92 Vmaxpu=1.50 daily=RES_5_Sabado status=variable 
New Load.BT_4_278793._PNTUB Bus1=BT3841.1.2.3.0 phases=3 conn=Delta Model=3 kV=0.22 kW=0.034 pf=0.92 Vminpu=0.92 Vmaxpu=1.50 daily=RES_5_Sabado status=variable 
New Load.BT_4_278794._PNTUB Bus1=BT3842.1.2.3.0 phases=3 conn=Delta Model=3 kV=0.22 kW=0.058 pf=0.92 Vminpu=0.92 Vmaxpu=1.50 daily=RES_6_Sabado status=variable 
New Load.BT_251_278796._PNTUB Bus1=BT3843.1.2.3.0 phases=3 conn=Delta Model=3 kV=0.22 kW=0.01 pf=0.92 Vminpu=0.92 Vmaxpu=1.50 daily=RES_3_Sabado status=variable 
New Load.BT_251_278797._PNTUB Bus1=BT3844.1.2.0 phases=1 conn=wye Model=3 kV=0.22 kW=0.038 pf=0.92 Vminpu=0.92 Vmaxpu=1.50 daily=RES_6_Sabado status=variable 
New Load.BT_3_278799._PNTUB Bus1=BT3845.3.1.0 phases=1 conn=wye Model=3 kV=0.22 kW=0.008 pf=0.92 Vminpu=0.92 Vmaxpu=1.50 daily=RES_3_Sabado status=variable 
New Load.BT_3_278800._PNTUB Bus1=BT3846.3.1.0 phases=1 conn=wye Model=3 kV=0.22 kW=0.027 pf=0.92 Vminpu=0.92 Vmaxpu=1.50 daily=RES_5_Sabado status=variable 
New Load.BT_3_278801._PNTUB Bus1=BT3847.2.0 phases=1 conn=wye Model=3 kV=0.127 kW=0.002 pf=0.92 Vminpu=0.92 Vmaxpu=1.50 daily=COM_4_Sabado status=variable 
New Load.BT_3_278802._PNTUB Bus1=BT3848.3.0 phases=1 conn=wye Model=3 kV=0.127 kW=0.021 pf=0.92 Vminpu=0.92 Vmaxpu=1.50 daily=RES_5_Sabado status=variable 
New Load.BT_3_278803._PNTUB Bus1=BT3849.1.0 phases=1 conn=wye Model=3 kV=0.127 kW=0.017 pf=0.92 Vminpu=0.92 Vmaxpu=1.50 daily=RES_1_Sabado status=variable 
New Load.BT_3_278806._PNTUB Bus1=BT3850.1.2.3.0 phases=3 conn=Delta Model=3 kV=0.22 kW=0.024 pf=0.92 Vminpu=0.92 Vmaxpu=1.50 daily=RES_4_Sabado status=variable 
New Load.BT_3_278807._PNTUB Bus1=BT3851.2.0 phases=1 conn=wye Model=3 kV=0.127 kW=0.001 pf=0.92 Vminpu=0.92 Vmaxpu=1.50 daily=RES_4_Sabado status=variable 
New Load.BT_3_278808._PNTUB Bus1=BT3852.1.0 phases=1 conn=wye Model=3 kV=0.127 kW=0.018 pf=0.92 Vminpu=0.92 Vmaxpu=1.50 daily=RES_6_Sabado status=variable 
New Load.BT_3_278809._PNTUB Bus1=BT3853.2.3.0 phases=1 conn=wye Model=3 kV=0.22 kW=0.029 pf=0.92 Vminpu=0.92 Vmaxpu=1.50 daily=RES_5_Sabado status=variable 
New Load.BT_3_278810._PNTUB Bus1=BT3854.3.0 phases=1 conn=wye Model=3 kV=0.127 kW=0.019 pf=0.92 Vminpu=0.92 Vmaxpu=1.50 daily=RES_6_Sabado status=variable 
New Load.BT_251_278833._PNTUB Bus1=BT3855.3.1.0 phases=1 conn=wye Model=3 kV=0.22 kW=0.015 pf=0.92 Vminpu=0.92 Vmaxpu=1.50 daily=RES_2_Sabado status=variable 
New Load.BT_251_278834._PNTUB Bus1=BT3856.2.3.0 phases=1 conn=wye Model=3 kV=0.22 kW=0.03 pf=0.92 Vminpu=0.92 Vmaxpu=1.50 daily=RES_5_Sabado status=variable 
New Load.BT_243_278838._PNTUB Bus1=BT3857.1.2.3.0 phases=3 conn=Delta Model=3 kV=0.22 kW=0.018 pf=0.92 Vminpu=0.92 Vmaxpu=1.50 daily=COM_5_Sabado status=variable 
New Load.BT_243_278839._PNTUB Bus1=BT3858.1.2.3.0 phases=3 conn=Delta Model=3 kV=0.22 kW=0.005 pf=0.92 Vminpu=0.92 Vmaxpu=1.50 daily=RES_4_Sabado status=variable 
New Load.BT_243_278840._PNTUB Bus1=BT3859.2.3.0 phases=1 conn=wye Model=3 kV=0.22 kW=0.02 pf=0.92 Vminpu=0.92 Vmaxpu=1.50 daily=RES_5_Sabado status=variable 
New Load.BT_243_278841._PNTUB Bus1=BT3860.1.2.0 phases=1 conn=wye Model=3 kV=0.22 kW=0.012 pf=0.92 Vminpu=0.92 Vmaxpu=1.50 daily=RES_3_Sabado status=variable 
New Load.BT_245_278842._PNTUB Bus1=BT3861.1.0 phases=1 conn=wye Model=3 kV=0.127 kW=0.014 pf=0.92 Vminpu=0.92 Vmaxpu=1.50 daily=RES_6_Sabado status=variable 
New Load.BT_245_278845._PNTUB Bus1=BT3862.3.0 phases=1 conn=wye Model=3 kV=0.127 kW=0.001 pf=0.92 Vminpu=0.92 Vmaxpu=1.50 daily=COM_3_Sabado status=variable 
New Load.BT_245_278846._PNTUB Bus1=BT3863.2.0 phases=1 conn=wye Model=3 kV=0.127 kW=0.001 pf=0.92 Vminpu=0.92 Vmaxpu=1.50 daily=COM_2_Sabado status=variable 
New Load.BT_245_278847._PNTUB Bus1=BT3864.1.2.0 phases=1 conn=wye Model=3 kV=0.22 kW=0.007 pf=0.92 Vminpu=0.92 Vmaxpu=1.50 daily=COM_2_Sabado status=variable 
New Load.BT_245_278848._PNTUB Bus1=BT3865.3.1.0 phases=1 conn=wye Model=3 kV=0.22 kW=0.022 pf=0.92 Vminpu=0.92 Vmaxpu=1.50 daily=COM_2_Sabado status=variable 
New Load.BT_251_278856._PNTUB Bus1=BT3866.1.2.3.0 phases=3 conn=Delta Model=3 kV=0.22 kW=0.046 pf=0.92 Vminpu=0.92 Vmaxpu=1.50 daily=COM_3_Sabado status=variable 
New Load.BT_251_278857._PNTUB Bus1=BT3867.1.0 phases=1 conn=wye Model=3 kV=0.127 kW=0.01 pf=0.92 Vminpu=0.92 Vmaxpu=1.50 daily=RES_5_Sabado status=variable 
New Load.BT_250_278858._PNTUB Bus1=BT3868.1.2.3.0 phases=3 conn=Delta Model=3 kV=0.22 kW=0.125 pf=0.92 Vminpu=0.92 Vmaxpu=1.50 daily=COM_4_Sabado status=variable 
New Load.BT_248_278860._PNTUB Bus1=BT3869.1.0 phases=1 conn=wye Model=3 kV=0.127 kW=0.034 pf=0.92 Vminpu=0.92 Vmaxpu=1.50 daily=RES_1_Sabado status=variable 
New Load.BT_248_278861._PNTUB Bus1=BT3870.3.1.0 phases=1 conn=wye Model=3 kV=0.22 kW=0.023 pf=0.92 Vminpu=0.92 Vmaxpu=1.50 daily=RES_1_Sabado status=variable 
New Load.BT_248_278862._PNTUB Bus1=BT3871.1.2.3.0 phases=3 conn=Delta Model=3 kV=0.22 kW=0.044 pf=0.92 Vminpu=0.92 Vmaxpu=1.50 daily=RES_2_Sabado status=variable 
New Load.BT_251_278863._PNTUB Bus1=BT3872.1.2.3.0 phases=3 conn=Delta Model=3 kV=0.22 kW=0.037 pf=0.92 Vminpu=0.92 Vmaxpu=1.50 daily=RES_6_Sabado status=variable 
New Load.BT_251_278864._PNTUB Bus1=BT3873.1.2.0 phases=1 conn=wye Model=3 kV=0.22 kW=0.042 pf=0.92 Vminpu=0.92 Vmaxpu=1.50 daily=RES_1_Sabado status=variable 
New Load.BT_248_278866._PNTUB Bus1=BT3874.1.2.3.0 phases=3 conn=Delta Model=3 kV=0.22 kW=0.04 pf=0.92 Vminpu=0.92 Vmaxpu=1.50 daily=RES_2_Sabado status=variable 
New Load.BT_248_278867._PNTUB Bus1=BT3875.3.1.0 phases=1 conn=wye Model=3 kV=0.22 kW=0.012 pf=0.92 Vminpu=0.92 Vmaxpu=1.50 daily=COM_3_Sabado status=variable 
New Load.BT_248_278887._PNTUB Bus1=BT3876.1.2.3.0 phases=3 conn=Delta Model=3 kV=0.22 kW=0.116 pf=0.92 Vminpu=0.92 Vmaxpu=1.50 daily=COM_4_Sabado status=variable 
New Load.BT_248_278888._PNTUB Bus1=BT3877.1.2.0 phases=1 conn=wye Model=3 kV=0.22 kW=0.029 pf=0.92 Vminpu=0.92 Vmaxpu=1.50 daily=RES_2_Sabado status=variable 
New Load.BT_248_278889._PNTUB Bus1=BT3878.3.0 phases=1 conn=wye Model=3 kV=0.127 kW=0.003 pf=0.92 Vminpu=0.92 Vmaxpu=1.50 daily=COM_5_Sabado status=variable 
New Load.BT_248_278890._PNTUB Bus1=BT3879.1.2.3.0 phases=3 conn=Delta Model=3 kV=0.22 kW=0.004 pf=0.92 Vminpu=0.92 Vmaxpu=1.50 daily=RES_4_Sabado status=variable 
New Load.BT_248_278892._PNTUB Bus1=BT3880.1.2.3.0 phases=3 conn=Delta Model=3 kV=0.22 kW=0.003 pf=0.92 Vminpu=0.92 Vmaxpu=1.50 daily=COM_1_Sabado status=variable 
New Load.BT_248_278893._PNTUB Bus1=BT3881.3.1.0 phases=1 conn=wye Model=3 kV=0.22 kW=0.002 pf=0.92 Vminpu=0.92 Vmaxpu=1.50 daily=COM_2_Sabado status=variable 
New Load.BT_245_278895._PNTUB Bus1=BT3882.3.1.0 phases=1 conn=wye Model=3 kV=0.22 kW=0.012 pf=0.92 Vminpu=0.92 Vmaxpu=1.50 daily=COM_6_Sabado status=variable 
New Load.BT_244_278896._PNTUB Bus1=BT3883.1.2.3.0 phases=3 conn=Delta Model=3 kV=0.22 kW=0.007 pf=0.92 Vminpu=0.92 Vmaxpu=1.50 daily=COM_1_Sabado status=variable 
New Load.BT_244_278897._PNTUB Bus1=BT3884.1.2.0 phases=1 conn=wye Model=3 kV=0.22 kW=0.004 pf=0.92 Vminpu=0.92 Vmaxpu=1.50 daily=COM_1_Sabado status=variable 
New Load.BT_244_278898._PNTUB Bus1=BT3885.1.0 phases=1 conn=wye Model=3 kV=0.127 kW=0.02 pf=0.92 Vminpu=0.92 Vmaxpu=1.50 daily=COM_2_Sabado status=variable 
New Load.BT_246_278901._PNTUB Bus1=BT3886.1.2.3.0 phases=3 conn=Delta Model=3 kV=0.22 kW=0.055 pf=0.92 Vminpu=0.92 Vmaxpu=1.50 daily=COM_2_Sabado status=variable 
New Load.BT_244_278903._PNTUB Bus1=BT3887.3.1.0 phases=1 conn=wye Model=3 kV=0.22 kW=0.005 pf=0.92 Vminpu=0.92 Vmaxpu=1.50 daily=RES_5_Sabado status=variable 
New Load.BT_244_278904._PNTUB Bus1=BT3888.1.0 phases=1 conn=wye Model=3 kV=0.127 kW=0.005 pf=0.92 Vminpu=0.92 Vmaxpu=1.50 daily=COM_2_Sabado status=variable 
New Load.BT_244_278905._PNTUB Bus1=BT3889.1.0 phases=1 conn=wye Model=3 kV=0.127 kW=0.033 pf=0.92 Vminpu=0.92 Vmaxpu=1.50 daily=RES_7_Sabado status=variable 
New Load.BT_244_278906._PNTUB Bus1=BT3890.1.2.3.0 phases=3 conn=Delta Model=3 kV=0.22 kW=0.025 pf=0.92 Vminpu=0.92 Vmaxpu=1.50 daily=COM_1_Sabado status=variable 
New Load.BT_248_278907._PNTUB Bus1=BT3891.1.2.3.0 phases=3 conn=Delta Model=3 kV=0.22 kW=0.039 pf=0.92 Vminpu=0.92 Vmaxpu=1.50 daily=RES_1_Sabado status=variable 
New Load.BT_248_278908._PNTUB Bus1=BT3892.1.2.3.0 phases=3 conn=Delta Model=3 kV=0.22 kW=0.064 pf=0.92 Vminpu=0.92 Vmaxpu=1.50 daily=COM_1_Sabado status=variable 
New Load.BT_6_278941._PNTUB Bus1=BT3893.2.0 phases=1 conn=wye Model=3 kV=0.127 kW=0.03 pf=0.92 Vminpu=0.92 Vmaxpu=1.50 daily=RES_1_Sabado status=variable 
New Load.BT_6_278942._PNTUB Bus1=BT3894.1.0 phases=1 conn=wye Model=3 kV=0.127 kW=0.01 pf=0.92 Vminpu=0.92 Vmaxpu=1.50 daily=RES_1_Sabado status=variable 
New Load.BT_6_278943._PNTUB Bus1=BT3895.1.2.3.0 phases=3 conn=Delta Model=3 kV=0.22 kW=0.034 pf=0.92 Vminpu=0.92 Vmaxpu=1.50 daily=RES_4_Sabado status=variable 
New Load.BT_244_278944._PNTUB Bus1=BT3896.2.0 phases=1 conn=wye Model=3 kV=0.127 kW=0.013 pf=0.92 Vminpu=0.92 Vmaxpu=1.50 daily=RES_8_Sabado status=variable 
New Load.BT_244_278945._PNTUB Bus1=BT3897.1.2.3.0 phases=3 conn=Delta Model=3 kV=0.22 kW=0.011 pf=0.92 Vminpu=0.92 Vmaxpu=1.50 daily=RES_6_Sabado status=variable 
New Load.BT_244_278946._PNTUB Bus1=BT3898.1.2.3.0 phases=3 conn=Delta Model=3 kV=0.22 kW=0.331 pf=0.92 Vminpu=0.92 Vmaxpu=1.50 daily=COM_1_Sabado status=variable 
New Load.BT_244_278948._PNTUB Bus1=BT3899.1.2.0 phases=1 conn=wye Model=3 kV=0.22 kW=0.001 pf=0.92 Vminpu=0.92 Vmaxpu=1.50 daily=COM_6_Sabado status=variable 
New Load.BT_244_278949._PNTUB Bus1=BT3900.1.2.3.0 phases=3 conn=Delta Model=3 kV=0.22 kW=0.054 pf=0.92 Vminpu=0.92 Vmaxpu=1.50 daily=COM_3_Sabado status=variable 
New Load.BT_241_278951._PNTUB Bus1=BT3901.1.2.0 phases=1 conn=wye Model=3 kV=0.22 kW=0 pf=0.92 Vminpu=0.92 Vmaxpu=1.50 daily=COM_1_Sabado status=variable 
New Load.BT_245_278953._PNTUB Bus1=BT3902.2.0 phases=1 conn=wye Model=3 kV=0.127 kW=0.003 pf=0.92 Vminpu=0.92 Vmaxpu=1.50 daily=COM_2_Sabado status=variable 
New Load.BT_245_278954._PNTUB Bus1=BT3903.1.0 phases=1 conn=wye Model=3 kV=0.127 kW=0.084 pf=0.92 Vminpu=0.92 Vmaxpu=1.50 daily=COM_1_Sabado status=variable 
New Load.BT_245_278955._PNTUB Bus1=BT3904.3.1.0 phases=1 conn=wye Model=3 kV=0.22 kW=0.013 pf=0.92 Vminpu=0.92 Vmaxpu=1.50 daily=RES_3_Sabado status=variable 
New Load.BT_245_278956._PNTUB Bus1=BT3905.1.0 phases=1 conn=wye Model=3 kV=0.127 kW=0.003 pf=0.92 Vminpu=0.92 Vmaxpu=1.50 daily=COM_1_Sabado status=variable 
New Load.BT_245_278957._PNTUB Bus1=BT3906.2.0 phases=1 conn=wye Model=3 kV=0.127 kW=0.009 pf=0.92 Vminpu=0.92 Vmaxpu=1.50 daily=COM_2_Sabado status=variable 
New Load.BT_245_278958._PNTUB Bus1=BT3907.3.0 phases=1 conn=wye Model=3 kV=0.127 kW=0.003 pf=0.92 Vminpu=0.92 Vmaxpu=1.50 daily=COM_5_Sabado status=variable 
New Load.BT_239_278959._PNTUB Bus1=BT3908.1.2.3.0 phases=3 conn=Delta Model=3 kV=0.22 kW=0.135 pf=0.92 Vminpu=0.92 Vmaxpu=1.50 daily=COM_2_Sabado status=variable 
New Load.BT_239_278960._PNTUB Bus1=BT3909.1.0 phases=1 conn=wye Model=3 kV=0.127 kW=0.019 pf=0.92 Vminpu=0.92 Vmaxpu=1.50 daily=COM_2_Sabado status=variable 
New Load.BT_244_278962._PNTUB Bus1=BT3910.1.2.0 phases=1 conn=wye Model=3 kV=0.22 kW=0.031 pf=0.92 Vminpu=0.92 Vmaxpu=1.50 daily=RES_6_Sabado status=variable 
New Load.BT_244_278963._PNTUB Bus1=BT3911.1.2.3.0 phases=3 conn=Delta Model=3 kV=0.22 kW=0.018 pf=0.92 Vminpu=0.92 Vmaxpu=1.50 daily=COM_3_Sabado status=variable 
New Load.BT_244_278964._PNTUB Bus1=BT3912.2.3.0 phases=1 conn=wye Model=3 kV=0.22 kW=0.001 pf=0.92 Vminpu=0.92 Vmaxpu=1.50 daily=COM_3_Sabado status=variable 
New Load.BT_244_278965._PNTUB Bus1=BT3913.3.0 phases=1 conn=wye Model=3 kV=0.127 kW=0.003 pf=0.92 Vminpu=0.92 Vmaxpu=1.50 daily=COM_1_Sabado status=variable 
New Load.BT_244_278966._PNTUB Bus1=BT3914.2.3.0 phases=1 conn=wye Model=3 kV=0.22 kW=0.014 pf=0.92 Vminpu=0.92 Vmaxpu=1.50 daily=COM_2_Sabado status=variable 
New Load.BT_244_278967._PNTUB Bus1=BT3915.2.3.0 phases=1 conn=wye Model=3 kV=0.22 kW=0.016 pf=0.92 Vminpu=0.92 Vmaxpu=1.50 daily=COM_1_Sabado status=variable 
New Load.BT_244_278968._PNTUB Bus1=BT3916.1.2.0 phases=1 conn=wye Model=3 kV=0.22 kW=0.013 pf=0.92 Vminpu=0.92 Vmaxpu=1.50 daily=COM_5_Sabado status=variable 
New Load.BT_244_278969._PNTUB Bus1=BT3917.1.2.0 phases=1 conn=wye Model=3 kV=0.22 kW=0 pf=0.92 Vminpu=0.92 Vmaxpu=1.50 daily=COM_4_Sabado status=variable 
New Load.BT_239_278970._PNTUB Bus1=BT3918.3.1.0 phases=1 conn=wye Model=3 kV=0.22 kW=0.059 pf=0.92 Vminpu=0.92 Vmaxpu=1.50 daily=RES_1_Sabado status=variable 
New Load.BT_244_278971._PNTUB Bus1=BT3919.2.0 phases=1 conn=wye Model=3 kV=0.127 kW=0.035 pf=0.92 Vminpu=0.92 Vmaxpu=1.50 daily=COM_5_Sabado status=variable 
New Load.BT_244_278972._PNTUB Bus1=BT3920.3.1.0 phases=1 conn=wye Model=3 kV=0.22 kW=0.056 pf=0.92 Vminpu=0.92 Vmaxpu=1.50 daily=RES_6_Sabado status=variable 
New Load.BT_239_278973._PNTUB Bus1=BT3921.1.2.3.0 phases=3 conn=Delta Model=3 kV=0.22 kW=0.054 pf=0.92 Vminpu=0.92 Vmaxpu=1.50 daily=COM_1_Sabado status=variable 
New Load.BT_239_278974._PNTUB Bus1=BT3922.1.2.0 phases=1 conn=wye Model=3 kV=0.22 kW=0.01 pf=0.92 Vminpu=0.92 Vmaxpu=1.50 daily=COM_6_Sabado status=variable 
New Load.BT_239_278975._PNTUB Bus1=BT3923.1.2.3.0 phases=3 conn=Delta Model=3 kV=0.22 kW=0.024 pf=0.92 Vminpu=0.92 Vmaxpu=1.50 daily=RES_6_Sabado status=variable 
New Load.BT_5_278976._PNTUB Bus1=BT3924.1.2.0 phases=1 conn=wye Model=3 kV=0.22 kW=0.044 pf=0.92 Vminpu=0.92 Vmaxpu=1.50 daily=RES_5_Sabado status=variable 
New Load.BT_5_278977._PNTUB Bus1=BT3925.1.0 phases=1 conn=wye Model=3 kV=0.127 kW=0.004 pf=0.92 Vminpu=0.92 Vmaxpu=1.50 daily=COM_2_Sabado status=variable 
New Load.BT_6_278980._PNTUB Bus1=BT3926.1.2.3.0 phases=3 conn=Delta Model=3 kV=0.22 kW=0.026 pf=0.92 Vminpu=0.92 Vmaxpu=1.50 daily=COM_3_Sabado status=variable 
New Load.BT_6_278981._PNTUB Bus1=BT3927.1.2.3.0 phases=3 conn=Delta Model=3 kV=0.22 kW=0.008 pf=0.92 Vminpu=0.92 Vmaxpu=1.50 daily=RES_3_Sabado status=variable 
New Load.BT_6_278982._PNTUB Bus1=BT3928.1.2.3.0 phases=3 conn=Delta Model=3 kV=0.22 kW=0.07 pf=0.92 Vminpu=0.92 Vmaxpu=1.50 daily=RES_1_Sabado status=variable 
New Load.BT_5_278983._PNTUB Bus1=BT3929.2.3.0 phases=1 conn=wye Model=3 kV=0.22 kW=0.041 pf=0.92 Vminpu=0.92 Vmaxpu=1.50 daily=RES_1_Sabado status=variable 
New Load.BT_5_278984._PNTUB Bus1=BT3930.1.2.3.0 phases=3 conn=Delta Model=3 kV=0.22 kW=0.001 pf=0.92 Vminpu=0.92 Vmaxpu=1.50 daily=RES_5_Sabado status=variable 
New Load.BT_5_278985._PNTUB Bus1=BT3931.1.2.3.0 phases=3 conn=Delta Model=3 kV=0.22 kW=0.041 pf=0.92 Vminpu=0.92 Vmaxpu=1.50 daily=RES_6_Sabado status=variable 
New Load.BT_18_279003._PNTUB Bus1=BT3932.1.0 phases=1 conn=wye Model=3 kV=0.127 kW=0.002 pf=0.92 Vminpu=0.92 Vmaxpu=1.50 daily=COM_2_Sabado status=variable 
New Load.BT_5_279016._PNTUB Bus1=BT3933.3.1.0 phases=1 conn=wye Model=3 kV=0.22 kW=0.007 pf=0.92 Vminpu=0.92 Vmaxpu=1.50 daily=COM_5_Sabado status=variable 
New Load.BT_5_279017._PNTUB Bus1=BT3934.1.2.3.0 phases=3 conn=Delta Model=3 kV=0.22 kW=0.087 pf=0.92 Vminpu=0.92 Vmaxpu=1.50 daily=COM_2_Sabado status=variable 
New Load.BT_5_279018._PNTUB Bus1=BT3935.3.1.0 phases=1 conn=wye Model=3 kV=0.22 kW=0.028 pf=0.92 Vminpu=0.92 Vmaxpu=1.50 daily=COM_2_Sabado status=variable 
New Load.BT_239_279019._PNTUB Bus1=BT3936.1.2.3.0 phases=3 conn=Delta Model=3 kV=0.22 kW=0.018 pf=0.92 Vminpu=0.92 Vmaxpu=1.50 daily=COM_1_Sabado status=variable 
New Load.BT_239_279020._PNTUB Bus1=BT3937.1.0 phases=1 conn=wye Model=3 kV=0.127 kW=0.001 pf=0.92 Vminpu=0.92 Vmaxpu=1.50 daily=RES_4_Sabado status=variable 
New Load.BT_241_279021._PNTUB Bus1=BT3938.3.1.0 phases=1 conn=wye Model=3 kV=0.22 kW=0.022 pf=0.92 Vminpu=0.92 Vmaxpu=1.50 daily=COM_1_Sabado status=variable 
New Load.BT_241_279023._PNTUB Bus1=BT3939.1.2.0 phases=1 conn=wye Model=3 kV=0.22 kW=0.031 pf=0.92 Vminpu=0.92 Vmaxpu=1.50 daily=RES_1_Sabado status=variable 
New Load.BT_242_279025._PNTUB Bus1=BT3940.1.2.3.0 phases=3 conn=Delta Model=3 kV=0.22 kW=0.699 pf=0.92 Vminpu=0.92 Vmaxpu=1.50 daily=COM_1_Sabado status=variable 
New Load.BT_236_279026._PNTUB Bus1=BT3941.1.2.3.0 phases=3 conn=Delta Model=3 kV=0.22 kW=0 pf=0.92 Vminpu=0.92 Vmaxpu=1.50 daily=RES_4_Sabado status=variable 
New Load.BT_236_279027._PNTUB Bus1=BT3942.1.2.3.0 phases=3 conn=Delta Model=3 kV=0.22 kW=0.19 pf=0.92 Vminpu=0.92 Vmaxpu=1.50 daily=COM_5_Sabado status=variable 
New Load.BT_239_279029._PNTUB Bus1=BT3943.1.2.3.0 phases=3 conn=Delta Model=3 kV=0.22 kW=0.038 pf=0.92 Vminpu=0.92 Vmaxpu=1.50 daily=COM_1_Sabado status=variable 
New Load.BT_239_279030._PNTUB Bus1=BT3944.2.0 phases=1 conn=wye Model=3 kV=0.127 kW=0 pf=0.92 Vminpu=0.92 Vmaxpu=1.50 daily=COM_2_Sabado status=variable 
New Load.BT_239_279031._PNTUB Bus1=BT3945.3.0 phases=1 conn=wye Model=3 kV=0.127 kW=0.021 pf=0.92 Vminpu=0.92 Vmaxpu=1.50 daily=COM_1_Sabado status=variable 
New Load.BT_239_279032._PNTUB Bus1=BT3946.2.0 phases=1 conn=wye Model=3 kV=0.127 kW=0.024 pf=0.92 Vminpu=0.92 Vmaxpu=1.50 daily=RES_4_Sabado status=variable 
New Load.BT_239_279033._PNTUB Bus1=BT3947.1.0 phases=1 conn=wye Model=3 kV=0.127 kW=0.001 pf=0.92 Vminpu=0.92 Vmaxpu=1.50 daily=COM_3_Sabado status=variable 
New Load.BT_239_279034._PNTUB Bus1=BT3948.1.2.3.0 phases=3 conn=Delta Model=3 kV=0.22 kW=0.021 pf=0.92 Vminpu=0.92 Vmaxpu=1.50 daily=COM_2_Sabado status=variable 
New Load.BT_234_279035._PNTUB Bus1=BT3949.2.0 phases=1 conn=wye Model=3 kV=0.127 kW=0.001 pf=0.92 Vminpu=0.92 Vmaxpu=1.50 daily=COM_5_Sabado status=variable 
New Load.BT_234_279036._PNTUB Bus1=BT3950.3.0 phases=1 conn=wye Model=3 kV=0.127 kW=0.002 pf=0.92 Vminpu=0.92 Vmaxpu=1.50 daily=COM_3_Sabado status=variable 
New Load.BT_234_279039._PNTUB Bus1=BT3951.3.1.0 phases=1 conn=wye Model=3 kV=0.22 kW=0.017 pf=0.92 Vminpu=0.92 Vmaxpu=1.50 daily=RES_5_Sabado status=variable 
New Load.BT_234_279040._PNTUB Bus1=BT3952.1.2.3.0 phases=3 conn=Delta Model=3 kV=0.22 kW=0.004 pf=0.92 Vminpu=0.92 Vmaxpu=1.50 daily=COM_4_Sabado status=variable 
New Load.BT_234_279041._PNTUB Bus1=BT3953.2.3.0 phases=1 conn=wye Model=3 kV=0.22 kW=0.12 pf=0.92 Vminpu=0.92 Vmaxpu=1.50 daily=RES_5_Sabado status=variable 
New Load.BT_234_279042._PNTUB Bus1=BT3954.2.3.0 phases=1 conn=wye Model=3 kV=0.22 kW=0.006 pf=0.92 Vminpu=0.92 Vmaxpu=1.50 daily=COM_1_Sabado status=variable 
New Load.BT_234_279043._PNTUB Bus1=BT3955.2.0 phases=1 conn=wye Model=3 kV=0.127 kW=0 pf=0.92 Vminpu=0.92 Vmaxpu=1.50 daily=RES_2_Sabado status=variable 
New Load.BT_234_279044._PNTUB Bus1=BT3956.3.1.0 phases=1 conn=wye Model=3 kV=0.22 kW=0.018 pf=0.92 Vminpu=0.92 Vmaxpu=1.50 daily=COM_4_Sabado status=variable 
New Load.BT_234_279045._PNTUB Bus1=BT3957.1.2.3.0 phases=3 conn=Delta Model=3 kV=0.22 kW=0.02 pf=0.92 Vminpu=0.92 Vmaxpu=1.50 daily=COM_1_Sabado status=variable 
New Load.BT_330_279047._PNTUB Bus1=BT3958.2.0 phases=1 conn=wye Model=3 kV=0.127 kW=0.002 pf=0.92 Vminpu=0.92 Vmaxpu=1.50 daily=RES_4_Sabado status=variable 
New Load.BT_330_279048._PNTUB Bus1=BT3959.1.2.3.0 phases=3 conn=Delta Model=3 kV=0.22 kW=0.046 pf=0.92 Vminpu=0.92 Vmaxpu=1.50 daily=RES_4_Sabado status=variable 
New Load.BT_234_279050._PNTUB Bus1=BT3960.2.0 phases=1 conn=wye Model=3 kV=0.127 kW=0.004 pf=0.92 Vminpu=0.92 Vmaxpu=1.50 daily=COM_1_Sabado status=variable 
New Load.BT_234_279051._PNTUB Bus1=BT3961.1.0 phases=1 conn=wye Model=3 kV=0.127 kW=0.014 pf=0.92 Vminpu=0.92 Vmaxpu=1.50 daily=COM_4_Sabado status=variable 
New Load.BT_234_279052._PNTUB Bus1=BT3962.1.2.0 phases=1 conn=wye Model=3 kV=0.22 kW=0.02 pf=0.92 Vminpu=0.92 Vmaxpu=1.50 daily=COM_3_Sabado status=variable 
New Load.BT_5_279053._PNTUB Bus1=BT3963.1.0 phases=1 conn=wye Model=3 kV=0.127 kW=0.004 pf=0.92 Vminpu=0.92 Vmaxpu=1.50 daily=COM_1_Sabado status=variable 
New Load.BT_5_279054._PNTUB Bus1=BT3964.3.1.0 phases=1 conn=wye Model=3 kV=0.22 kW=0.016 pf=0.92 Vminpu=0.92 Vmaxpu=1.50 daily=COM_2_Sabado status=variable 
New Load.BT_5_279055._PNTUB Bus1=BT3965.1.2.0 phases=1 conn=wye Model=3 kV=0.22 kW=0.012 pf=0.92 Vminpu=0.92 Vmaxpu=1.50 daily=RES_5_Sabado status=variable 
New Load.BT_5_279057._PNTUB Bus1=BT3966.3.1.0 phases=1 conn=wye Model=3 kV=0.22 kW=0.07 pf=0.92 Vminpu=0.92 Vmaxpu=1.50 daily=RES_2_Sabado status=variable 
New Load.BT_5_279058._PNTUB Bus1=BT3967.3.0 phases=1 conn=wye Model=3 kV=0.127 kW=0.01 pf=0.92 Vminpu=0.92 Vmaxpu=1.50 daily=RES_3_Sabado status=variable 
New Load.BT_5_279059._PNTUB Bus1=BT3968.1.0 phases=1 conn=wye Model=3 kV=0.127 kW=0.011 pf=0.92 Vminpu=0.92 Vmaxpu=1.50 daily=COM_2_Sabado status=variable 
New Load.BT_10_279060._PNTUB Bus1=BT3969.1.2.0 phases=1 conn=wye Model=3 kV=0.22 kW=0.013 pf=0.92 Vminpu=0.92 Vmaxpu=1.50 daily=COM_5_Sabado status=variable 
New Load.BT_10_279061._PNTUB Bus1=BT3970.1.0 phases=1 conn=wye Model=3 kV=0.127 kW=0.004 pf=0.92 Vminpu=0.92 Vmaxpu=1.50 daily=COM_3_Sabado status=variable 
New Load.BT_10_279071._PNTUB Bus1=BT3971.1.0 phases=1 conn=wye Model=3 kV=0.127 kW=0.014 pf=0.92 Vminpu=0.92 Vmaxpu=1.50 daily=COM_3_Sabado status=variable 
New Load.BT_10_279072._PNTUB Bus1=BT3972.1.2.3.0 phases=3 conn=Delta Model=3 kV=0.22 kW=0.077 pf=0.92 Vminpu=0.92 Vmaxpu=1.50 daily=COM_2_Sabado status=variable 
New Load.BT_10_279074._PNTUB Bus1=BT3973.1.0 phases=1 conn=wye Model=3 kV=0.127 kW=0.003 pf=0.92 Vminpu=0.92 Vmaxpu=1.50 daily=RES_1_Sabado status=variable 
New Load.BT_10_279105._PNTUB Bus1=BT3974.1.2.3.0 phases=3 conn=Delta Model=3 kV=0.22 kW=0.018 pf=0.92 Vminpu=0.92 Vmaxpu=1.50 daily=COM_3_Sabado status=variable 
New Load.BT_10_279106._PNTUB Bus1=BT3975.1.0 phases=1 conn=wye Model=3 kV=0.127 kW=0.028 pf=0.92 Vminpu=0.92 Vmaxpu=1.50 daily=COM_3_Sabado status=variable 
New Load.BT_14_279108._PNTUB Bus1=BT3976.1.2.3.0 phases=3 conn=Delta Model=3 kV=0.22 kW=0.03 pf=0.92 Vminpu=0.92 Vmaxpu=1.50 daily=COM_4_Sabado status=variable 
New Load.BT_7_279111._PNTUB Bus1=BT3977.1.2.3.0 phases=3 conn=Delta Model=3 kV=0.22 kW=0.007 pf=0.92 Vminpu=0.92 Vmaxpu=1.50 daily=COM_2_Sabado status=variable 
New Load.BT_7_279112._PNTUB Bus1=BT3978.2.0 phases=1 conn=wye Model=3 kV=0.127 kW=0.001 pf=0.92 Vminpu=0.92 Vmaxpu=1.50 daily=COM_3_Sabado status=variable 
New Load.BT_7_279113._PNTUB Bus1=BT3979.1.0 phases=1 conn=wye Model=3 kV=0.127 kW=0.009 pf=0.92 Vminpu=0.92 Vmaxpu=1.50 daily=COM_2_Sabado status=variable 
New Load.BT_7_279114._PNTUB Bus1=BT3980.2.3.0 phases=1 conn=wye Model=3 kV=0.22 kW=0.007 pf=0.92 Vminpu=0.92 Vmaxpu=1.50 daily=COM_3_Sabado status=variable 
New Load.BT_7_279115._PNTUB Bus1=BT3981.1.2.3.0 phases=3 conn=Delta Model=3 kV=0.22 kW=0.045 pf=0.92 Vminpu=0.92 Vmaxpu=1.50 daily=COM_5_Sabado status=variable 
New Load.BT_7_279117._PNTUB Bus1=BT3982.2.0 phases=1 conn=wye Model=3 kV=0.127 kW=0.019 pf=0.92 Vminpu=0.92 Vmaxpu=1.50 daily=COM_6_Sabado status=variable 
New Load.BT_7_279118._PNTUB Bus1=BT3983.2.0 phases=1 conn=wye Model=3 kV=0.127 kW=0.005 pf=0.92 Vminpu=0.92 Vmaxpu=1.50 daily=COM_2_Sabado status=variable 
New Load.BT_236_279119._PNTUB Bus1=BT3984.3.1.0 phases=1 conn=wye Model=3 kV=0.22 kW=0.018 pf=0.92 Vminpu=0.92 Vmaxpu=1.50 daily=COM_1_Sabado status=variable 
New Load.BT_236_279120._PNTUB Bus1=BT3985.1.2.3.0 phases=3 conn=Delta Model=3 kV=0.22 kW=0.014 pf=0.92 Vminpu=0.92 Vmaxpu=1.50 daily=RES_5_Sabado status=variable 
New Load.BT_238_279121._PNTUB Bus1=BT3986.1.2.0 phases=1 conn=wye Model=3 kV=0.22 kW=0.022 pf=0.92 Vminpu=0.92 Vmaxpu=1.50 daily=RES_6_Sabado status=variable 
New Load.BT_238_279122._PNTUB Bus1=BT3987.3.0 phases=1 conn=wye Model=3 kV=0.127 kW=0.012 pf=0.92 Vminpu=0.92 Vmaxpu=1.50 daily=RES_4_Sabado status=variable 
New Load.BT_238_279125._PNTUB Bus1=BT3988.1.2.3.0 phases=3 conn=Delta Model=3 kV=0.22 kW=0.01 pf=0.92 Vminpu=0.92 Vmaxpu=1.50 daily=RES_2_Sabado status=variable 
New Load.BT_238_279126._PNTUB Bus1=BT3989.2.0 phases=1 conn=wye Model=3 kV=0.127 kW=0.033 pf=0.92 Vminpu=0.92 Vmaxpu=1.50 daily=RES_5_Sabado status=variable 
...
